New "Linecode.LC-custom_241f7b27-411d-45a9-af38-4ccb0f5994ba" nphases=3 R1=0.143 X1=0.224 R0=0.143 X0=0.224 Units="kft" Normamps=1000
New "Linecode.LC-custom_7d96552e-f8c6-4c20-95ab-4f4a47ac0cff" nphases=3 R1=0.252 X1=0.255 R0=0.252 X0=0.255 Units="kft" Normamps=1000
New "Linecode.LC-custom_e4926faa-4b2c-4d79-be5c-85c589586708" nphases=3 R1=0.066 X1=0.193 R0=0.066 X0=0.193 Units="kft" Normamps=1000
New "Linecode.LC-custom_eb31488d-56db-4f00-bef9-b1fce76bee09" nphases=3 R1=0.143 X1=0.224 R0=0.143 X0=0.224 Units="kft" Normamps=1000
New "Linecode.LC-custom_11e83de0-4ab5-4fdb-82f0-a344a24aa571" nphases=3 R1=0.252 X1=0.255 R0=0.252 X0=0.255 Units="kft" Normamps=1000
New "Linecode.LC-custom_02d6d331-92c2-4259-a858-c2f24a312e0c" nphases=3 R1=0.066 X1=0.193 R0=0.066 X0=0.193 Units="kft" Normamps=1000
New "Linecode.LC-custom_6094e1f5-1cd8-4d0c-b084-d7b2b72bb18a" nphases=3 R1=0.066 X1=0.193 R0=0.066 X0=0.193 Units="kft" Normamps=1000
New "Linecode.LC-custom_416a3b5e-fd38-40d8-a3c0-a51ac01c20e8" nphases=3 R1=0.251 X1=0.257 R0=0.251 X0=0.257 Units="kft" Normamps=1000
New "Linecode.LC-custom_934a7168-dab5-41a1-8133-3ec0c835f1ad" nphases=3 R1=0.143 X1=0.224 R0=0.143 X0=0.224 Units="kft" Normamps=1000
New "Linecode.LC-custom_eeb84cb6-dc1e-424d-87ef-7bf82c9c20ed" nphases=3 R1=0.252 X1=0.255 R0=0.252 X0=0.255 Units="kft" Normamps=1000
New "Linecode.LC-custom_f06d15f4-d3c1-4e57-b3ad-9685c210e0a7" nphases=3 R1=0.254 X1=0.097 R0=0.254 X0=0.097 Units="kft" Normamps=1000
New "Linecode.LC-custom_22c2fa0c-5261-4bc9-8dee-73fe5e49b8d1" nphases=3 R1=0.1511 X1=0.0845 R0=0.1511 X0=0.0845 Units="kft" Normamps=1000
