// PROJECT: 33Bus_radial_test - https://www.xendee.com/Studio/Launch/faeaea0a-9c60-4ad0-b489-9565ef65ab46
// STUDY: Final_model
// DATE GENERATED: Tue, 17 Apr 2018 23:11:09 GMT

// This script was auto-created by www.xendee.com for execution on OpenDSS version 7.6.5.13.
// Learn more about OpenDSS at http://smartgrid.epri.com/SimulationTool.aspx

Clear
Set DefaultBaseFrequency=60

// Source bus
New "Circuit.utility 01" Bus="busbar 01.1.2.3" phases=3 BasekV=12.66 pu=1 Angle=0 BaseMVA=100 MVAsc1=100 MVAsc3=100 X1=0.001 R1=0 X0=0.001 R0=0 

// Loads and motors
New "Load.load 02" Bus1="busbar 02.1.2.3.0" phases=3 Conn="wye" kV=12.66 kVA=116.68611435 Pf=0.857 VminPU=0.75 Model=2
New "Load.load 03" Bus1="busbar 03.1.2.3.0" phases=3 Conn="wye" kV=12.66 kVA=98.46827133 Pf=0.914 VminPU=0.75 Model=2
New "Load.load 04" Bus1="busbar 04.1.2.3.0" phases=3 Conn="wye" kV=12.66 kVA=144.23076923 Pf=0.832 VminPU=0.75 Model=2
New "Load.load 05" Bus1="busbar 05.1.2.3.0" phases=3 Conn="wye" kV=12.66 kVA=67.11409396 Pf=0.894 VminPU=0.75 Model=2
New "Load.load 06" Bus1="busbar 06.1.2.3.0" phases=3 Conn="wye" kV=12.66 kVA=63.29113924 Pf=0.948 VminPU=0.75 Model=2
New "Load.load 07" Bus1="busbar 07.1.2.3.0" phases=3 Conn="wye" kV=12.66 kVA=223.71364653 Pf=0.894 VminPU=0.75 Model=2
New "Load.load 08" Bus1="busbar 08.1.2.3.0" phases=3 Conn="wye" kV=12.66 kVA=223.71364653 Pf=0.894 VminPU=0.75 Model=2
New "Load.load 09" Bus1="busbar 09.1.2.3.0" phases=3 Conn="wye" kV=12.66 kVA=63.22444679 Pf=0.949 VminPU=0.75 Model=2
New "Load.load 10" Bus1="busbar 10.1.2.3.0" phases=3 Conn="wye" kV=12.66 kVA=63.22444679 Pf=0.949 VminPU=0.75 Model=2
New "Load.load 11" Bus1="busbar 11.1.2.3.0" phases=3 Conn="wye" kV=12.66 kVA=54.08653846 Pf=0.832 VminPU=0.75 Model=2
New "Load.load 12" Bus1="busbar 12.1.2.3.0" phases=3 Conn="wye" kV=12.66 kVA=69.44444444 Pf=0.864 VminPU=0.75 Model=2
New "Load.load 13" Bus1="busbar 13.1.2.3.0" phases=3 Conn="wye" kV=12.66 kVA=69.44444444 Pf=0.864 VminPU=0.75 Model=2
New "Load.load 14" Bus1="busbar 14.1.2.3.0" phases=3 Conn="wye" kV=12.66 kVA=144.23076923 Pf=0.832 VminPU=0.75 Model=2
New "Load.load 15" Bus1="busbar 15.1.2.3.0" phases=3 Conn="wye" kV=12.66 kVA=60.85192698 Pf=0.986 VminPU=0.75 Model=2
New "Load.load 16" Bus1="busbar 16.1.2.3.0" phases=3 Conn="wye" kV=12.66 kVA=63.22444679 Pf=0.949 VminPU=0.75 Model=2
New "Load.load 17" Bus1="busbar 17.1.2.3.0" phases=3 Conn="wye" kV=12.66 kVA=63.22444679 Pf=0.949 VminPU=0.75 Model=2
New "Load.load 18" Bus1="busbar 18.1.2.3.0" phases=3 Conn="wye" kV=12.66 kVA=98.46827133 Pf=0.914 VminPU=0.75 Model=2
New "Load.load 19" Bus1="busbar 19.1.2.3.0" phases=3 Conn="wye" kV=12.66 kVA=98.46827133 Pf=0.914 VminPU=0.75 Model=2
New "Load.load 20" Bus1="busbar 20.1.2.3.0" phases=3 Conn="wye" kV=12.66 kVA=98.46827133 Pf=0.914 VminPU=0.75 Model=2
New "Load.load 21" Bus1="busbar 21.1.2.3.0" phases=3 Conn="wye" kV=12.66 kVA=98.46827133 Pf=0.914 VminPU=0.75 Model=2
New "Load.load 22" Bus1="busbar 22.1.2.3.0" phases=3 Conn="wye" kV=12.66 kVA=98.46827133 Pf=0.914 VminPU=0.75 Model=2
New "Load.load 23" Bus1="busbar 23.1.2.3.0" phases=3 Conn="wye" kV=12.66 kVA=102.97482838 Pf=0.874 VminPU=0.75 Model=2
New "Load.load 24" Bus1="busbar 24.1.2.3.0" phases=3 Conn="wye" kV=12.66 kVA=465.11627907 Pf=0.903 VminPU=0.75 Model=2
New "Load.load 25" Bus1="busbar 25.1.2.3.0" phases=3 Conn="wye" kV=12.66 kVA=465.11627907 Pf=0.903 VminPU=0.75 Model=2
New "Load.load 26" Bus1="busbar 26.1.2.3.0" phases=3 Conn="wye" kV=12.66 kVA=65.00541712 Pf=0.923 VminPU=0.75 Model=2
New "Load.load 27" Bus1="busbar 27.1.2.3.0" phases=3 Conn="wye" kV=12.66 kVA=65.00541712 Pf=0.923 VminPU=0.75 Model=2
New "Load.load 28" Bus1="busbar 28.1.2.3.0" phases=3 Conn="wye" kV=12.66 kVA=63.22444679 Pf=0.949 VminPU=0.75 Model=2
New "Load.load 29" Bus1="busbar 29.1.2.3.0" phases=3 Conn="wye" kV=12.66 kVA=138.88888889 Pf=0.864 VminPU=0.75 Model=2
New "Load.load 30" Bus1="busbar 30.1.2.3.0" phases=3 Conn="wye" kV=12.66 kVA=632.91139241 Pf=0.316 VminPU=0.75 Model=2
New "Load.load 31" Bus1="busbar 31.1.2.3.0" phases=3 Conn="wye" kV=12.66 kVA=165.56291391 Pf=0.906 VminPU=0.75 Model=2
New "Load.load 32" Bus1="busbar 32.1.2.3.0" phases=3 Conn="wye" kV=12.66 kVA=232.55813953 Pf=0.903 VminPU=0.75 Model=2
New "Load.load 33" Bus1="busbar 33.1.2.3.0" phases=3 Conn="wye" kV=12.66 kVA=72.11538462 Pf=0.832 VminPU=0.75 Model=2

// Linecodes
New "Linecode.LC-custom_1f6606fa-f7dd-435a-9e30-266118eee435" nphases=3 R1=0.0922 X1=0.0477 R0=0.0922 X0=0.0477 Units="kft" Normamps=150
New "Linecode.LC-custom_4cb082ab-a77f-474b-86a1-c46d8d2daf87" nphases=3 R1=0.493 X1=0.2511 R0=0.439 X0=0.2511 Units="kft" Normamps=150
New "Linecode.LC-custom_872c3dad-e20b-4cb2-bc81-8159ea47cebe" nphases=3 R1=0.366 X1=0.1864 R0=0.366 X0=0.1864 Units="kft" Normamps=150
New "Linecode.LC-custom_05bac033-2cfd-48a3-b4af-e3b8ddc188cf" nphases=3 R1=0.3811 X1=0.1941 R0=0.3811 X0=0.1941 Units="kft" Normamps=150
New "Linecode.LC-custom_ee995c7f-2a60-4d36-a59f-e247c2cbbfa8" nphases=3 R1=0.819 X1=0.707 R0=0.819 X0=0.707 Units="kft" Normamps=150
New "Linecode.LC-custom_f27b0ee9-26cc-42fe-ad39-636d517bf5b3" nphases=3 R1=0.1872 X1=0.6188 R0=0.1872 X0=0.6188 Units="kft" Normamps=225
New "Linecode.LC-custom_7e038f8e-4983-4629-ae63-93f2e1c91e6e" nphases=3 R1=1.7114 X1=1.2351 R0=1.7114 X0=1.2351 Units="kft" Normamps=150
New "Linecode.LC-custom_2f5f58d9-4154-4c8e-a4e3-c8edc21127b4" nphases=3 R1=1.03 X1=0.74 R0=1.03 X0=0.74 Units="kft" Normamps=150
New "Linecode.LC-custom_473a3412-cce3-4204-b658-3830c5851e0c" nphases=3 R1=1.04 X1=0.74 R0=1.04 X0=0.74 Units="kft" Normamps=150
New "Linecode.LC-custom_2988cc2f-4c6a-493f-a478-6ab72c48c24f" nphases=3 R1=0.1966 X1=0.065 R0=0.1966 X0=0.0655 Units="kft" Normamps=150
New "Linecode.LC-custom_eed9ece3-655f-4f41-b07a-1137e0aaf606" nphases=3 R1=0.3744 X1=0.1238 R0=0.3744 X0=0.1238 Units="kft" Normamps=150
New "Linecode.LC-custom_a21cb4b8-96fe-4c34-a414-9d9ca74d4657" nphases=3 R1=1.468 X1=1.155 R0=1.468 X0=1.155 Units="kft" Normamps=150
New "Linecode.LC-custom_5d54ceaf-d08b-4707-87df-29d8965ea02b" nphases=3 R1=0.5416 X1=0.7129 R0=0.5416 X0=0.7129 Units="kft" Normamps=150
New "Linecode.LC-custom_1ba40938-0e89-4941-92ed-622d19b02358" nphases=3 R1=0.591 X1=0.526 R0=0.591 X0=0.526 Units="kft" Normamps=150
New "Linecode.LC-custom_a12eb154-4ee1-4133-a60a-913cdfe8db3a" nphases=3 R1=0.7463 X1=0.545 R0=0.7463 X0=0.545 Units="kft" Normamps=150
New "Linecode.LC-custom_de9e69d9-b4a1-4189-853f-d76900984cab" nphases=3 R1=1.289 X1=1.721 R0=1.289 X0=1.721 Units="kft" Normamps=150
New "Linecode.LC-custom_99c96f0f-9a25-4e66-ae51-ccb77624c20a" nphases=3 R1=0.732 X1=0.574 R0=0.732 X0=0.574 Units="kft" Normamps=150
New "Linecode.LC-custom_cc848240-b15c-410d-b363-40f02f977616" nphases=3 R1=0.164 X1=0.1565 R0=0.164 X0=0.1565 Units="kft" Normamps=150
New "Linecode.LC-custom_1a0c9699-b19a-4d9f-96cd-f4710ef6c875" nphases=3 R1=1.5042 X1=1.3554 R0=1.5042 X0=1.3554 Units="kft" Normamps=150
New "Linecode.LC-custom_c97ca322-a18c-4b66-bf02-9223df28169b" nphases=3 R1=0.4095 X1=0.4784 R0=0.4095 X0=0.4784 Units="kft" Normamps=150
New "Linecode.LC-custom_b2ff059e-feaf-4ad8-96eb-f823bfee6260" nphases=3 R1=0.7089 X1=0.9373 R0=0.7089 X0=0.9373 Units="kft" Normamps=150
New "Linecode.LC-custom_56b939fa-af4b-405d-8f0e-f9207a235aeb" nphases=3 R1=0.4512 X1=0.3083 R0=0.4512 X0=0.3083 Units="kft" Normamps=150
New "Linecode.LC-custom_8fc88f87-c002-4967-ac9a-11e669a4994d" nphases=3 R1=0.898 X1=0.7091 R0=0.898 X0=0.7091 Units="kft" Normamps=150
New "Linecode.LC-custom_a08c6ac4-8140-4db7-9289-eefff324f329" nphases=3 R1=0.896 X1=0.7011 R0=0.896 X0=0.7011 Units="kft" Normamps=150
New "Linecode.LC-custom_76e4037b-b667-4b84-b0a1-065e67920e4d" nphases=3 R1=0.203 X1=0.1034 R0=0.203 X0=0.1034 Units="kft" Normamps=150
New "Linecode.LC-custom_a119dbea-2896-4680-b117-a2fcb9a1a940" nphases=3 R1=0.2842 X1=0.1447 R0=0.2842 X0=0.1447 Units="kft" Normamps=150
New "Linecode.LC-custom_90e93dae-d3cf-49c5-b822-0f0494b4b952" nphases=3 R1=1.059 X1=0.9337 R0=1.059 X0=0.9337 Units="kft" Normamps=150
New "Linecode.LC-custom_ddacecf6-88ed-41dd-9bb8-4d49b7b875cc" nphases=3 R1=0.8042 X1=0.7006 R0=0.8042 X0=0.7006 Units="kft" Normamps=150
New "Linecode.LC-custom_7ba1eff8-9a00-4690-ab62-435626cc8a58" nphases=3 R1=0.5075 X1=0.2585 R0=0.5075 X0=0.2585 Units="kft" Normamps=150
New "Linecode.LC-custom_50b9cfe8-5086-45bc-a794-600d198df2c2" nphases=3 R1=0.9744 X1=0.963 R0=0.9744 X0=0.963 Units="kft" Normamps=150
New "Linecode.LC-custom_5d2ad348-60d5-4ea4-a142-2aa3ccc4de39" nphases=3 R1=0.3105 X1=0.3619 R0=0.3105 X0=0.3619 Units="kft" Normamps=150
New "Linecode.LC-custom_8f8aed95-ea62-4f90-ad02-33933ea2cfe0" nphases=3 R1=0.341 X1=0.5302 R0=0.341 X0=0.5302 Units="kft" Normamps=150
New "Linecode.LC-custom_76280248-ee66-4362-9548-f56fbf567028" nphases=3 R1=2 X1=2 R0=2 X0=2 Units="kft" Normamps=150
New "Linecode.LC-custom_a861a906-8c42-4869-90aa-4592d1b084b0" nphases=3 R1=2 X1=2 R0=2 X0=2 Units="kft" Normamps=150
New "Linecode.LC-custom_0c51a13f-0791-47cb-92cf-46c9ac71bfa3" nphases=3 R1=2 X1=2 R0=2 X0=2 Units="kft" Normamps=150
New "Linecode.LC-custom_d4cc95f4-070f-4fc6-8223-ca80538a1de6" nphases=3 R1=0.5 X1=0.5 R0=0.5 X0=0.5 Units="kft" Normamps=150
New "Linecode.LC-custom_f0bef23c-8fa6-4b31-a671-19068c51a3ef" nphases=3 R1=0.5 X1=0.5 R0=0.5 X0=0.5 Units="kft" Normamps=150

// Lines, Automatic Transfer Switches (ATS) and Direct Connections

New "Line.Line_1" Bus1="busbar 01.1.2.3" Bus2="busbar 02.1.2.3" LineCode="LC-custom_1f6606fa-f7dd-435a-9e30-266118eee435" Length=1000 Units="ft"
New "Line.Line_2" Bus1="busbar 02.1.2.3" Bus2="busbar 03.1.2.3" LineCode="LC-custom_4cb082ab-a77f-474b-86a1-c46d8d2daf87" Length=1000 Units="ft"
New "Line.Line_3" Bus1="busbar 03.1.2.3" Bus2="busbar 04.1.2.3" LineCode="LC-custom_872c3dad-e20b-4cb2-bc81-8159ea47cebe" Length=1000 Units="ft"
New "Line.Line_4" Bus1="busbar 04.1.2.3" Bus2="busbar 05.1.2.3" LineCode="LC-custom_05bac033-2cfd-48a3-b4af-e3b8ddc188cf" Length=1000 Units="ft"
New "Line.Line_5" Bus1="busbar 05.1.2.3" Bus2="busbar 06.1.2.3" LineCode="LC-custom_ee995c7f-2a60-4d36-a59f-e247c2cbbfa8" Length=100 Units="ft"
New "Line.Line_6" Bus1="busbar 06.1.2.3" Bus2="busbar 07.1.2.3" LineCode="LC-custom_f27b0ee9-26cc-42fe-ad39-636d517bf5b3" Length=1000 Units="ft"
New "Line.Line_7" Bus1="busbar 07.1.2.3" Bus2="busbar 08.1.2.3" LineCode="LC-custom_7e038f8e-4983-4629-ae63-93f2e1c91e6e" Length=1000 Units="ft"
New "Line.Line_8" Bus1="busbar 08.1.2.3" Bus2="busbar 09.1.2.3" LineCode="LC-custom_2f5f58d9-4154-4c8e-a4e3-c8edc21127b4" Length=1000 Units="ft"
New "Line.Line_9" Bus1="busbar 09.1.2.3" Bus2="busbar 10.1.2.3" LineCode="LC-custom_473a3412-cce3-4204-b658-3830c5851e0c" Length=1000 Units="ft"
New "Line.Line_10" Bus1="busbar 10.1.2.3" Bus2="busbar 11.1.2.3" LineCode="LC-custom_2988cc2f-4c6a-493f-a478-6ab72c48c24f" Length=1000 Units="ft"
New "Line.Line_11" Bus1="busbar 11.1.2.3" Bus2="busbar 12.1.2.3" LineCode="LC-custom_eed9ece3-655f-4f41-b07a-1137e0aaf606" Length=1000 Units="ft"
New "Line.Line_12" Bus1="busbar 12.1.2.3" Bus2="busbar 13.1.2.3" LineCode="LC-custom_a21cb4b8-96fe-4c34-a414-9d9ca74d4657" Length=1000 Units="ft"
New "Line.Line_13" Bus1="busbar 13.1.2.3" Bus2="busbar 14.1.2.3" LineCode="LC-custom_5d54ceaf-d08b-4707-87df-29d8965ea02b" Length=1000 Units="ft"
New "Line.Line_14" Bus1="busbar 14.1.2.3" Bus2="busbar 15.1.2.3" LineCode="LC-custom_1ba40938-0e89-4941-92ed-622d19b02358" Length=1000 Units="ft"
New "Line.Line_15" Bus1="busbar 15.1.2.3" Bus2="busbar 16.1.2.3" LineCode="LC-custom_a12eb154-4ee1-4133-a60a-913cdfe8db3a" Length=1000 Units="ft"
New "Line.Line_16" Bus1="busbar 16.1.2.3" Bus2="busbar 17.1.2.3" LineCode="LC-custom_de9e69d9-b4a1-4189-853f-d76900984cab" Length=1000 Units="ft"
New "Line.Line_17" Bus1="busbar 17.1.2.3" Bus2="busbar 18.1.2.3" LineCode="LC-custom_99c96f0f-9a25-4e66-ae51-ccb77624c20a" Length=1000 Units="ft"
New "Line.Line_18" Bus1="busbar 02.1.2.3" Bus2="busbar 19.1.2.3" LineCode="LC-custom_cc848240-b15c-410d-b363-40f02f977616" Length=1000 Units="ft"
New "Line.Line_19" Bus1="busbar 19.1.2.3" Bus2="busbar 20.1.2.3" LineCode="LC-custom_1a0c9699-b19a-4d9f-96cd-f4710ef6c875" Length=1000 Units="ft"
New "Line.Line_20" Bus1="busbar 20.1.2.3" Bus2="busbar 21.1.2.3" LineCode="LC-custom_c97ca322-a18c-4b66-bf02-9223df28169b" Length=1000 Units="ft"
New "Line.Line_21" Bus1="busbar 21.1.2.3" Bus2="busbar 22.1.2.3" LineCode="LC-custom_b2ff059e-feaf-4ad8-96eb-f823bfee6260" Length=1000 Units="ft"
New "Line.Line_22" Bus1="busbar 03.1.2.3" Bus2="busbar 23.1.2.3" LineCode="LC-custom_56b939fa-af4b-405d-8f0e-f9207a235aeb" Length=1000 Units="ft"
New "Line.Line_23" Bus1="busbar 23.1.2.3" Bus2="busbar 24.1.2.3" LineCode="LC-custom_8fc88f87-c002-4967-ac9a-11e669a4994d" Length=1000 Units="ft"
New "Line.Line_24" Bus1="busbar 24.1.2.3" Bus2="busbar 25.1.2.3" LineCode="LC-custom_a08c6ac4-8140-4db7-9289-eefff324f329" Length=1000 Units="ft"
New "Line.Line_25" Bus1="busbar 06.1.2.3" Bus2="busbar 26.1.2.3" LineCode="LC-custom_76e4037b-b667-4b84-b0a1-065e67920e4d" Length=1000 Units="ft"
New "Line.Line_26" Bus1="busbar 26.1.2.3" Bus2="busbar 27.1.2.3" LineCode="LC-custom_a119dbea-2896-4680-b117-a2fcb9a1a940" Length=1000 Units="ft"
New "Line.Line_27" Bus1="busbar 27.1.2.3" Bus2="busbar 28.1.2.3" LineCode="LC-custom_90e93dae-d3cf-49c5-b822-0f0494b4b952" Length=1000 Units="ft"
New "Line.Line_28" Bus1="busbar 28.1.2.3" Bus2="busbar 29.1.2.3" LineCode="LC-custom_ddacecf6-88ed-41dd-9bb8-4d49b7b875cc" Length=1000 Units="ft"
New "Line.Line_29" Bus1="busbar 29.1.2.3" Bus2="busbar 30.1.2.3" LineCode="LC-custom_7ba1eff8-9a00-4690-ab62-435626cc8a58" Length=1000 Units="ft" 
New "Line.Line_30" Bus1="busbar 30.1.2.3" Bus2="busbar 31.1.2.3" LineCode="LC-custom_50b9cfe8-5086-45bc-a794-600d198df2c2" Length=1000 Units="ft"
New "Line.Line_31" Bus1="busbar 31.1.2.3" Bus2="busbar 32.1.2.3" LineCode="LC-custom_5d2ad348-60d5-4ea4-a142-2aa3ccc4de39" Length=1000 Units="ft"
New "Line.Line_32" Bus1="busbar 32.1.2.3" Bus2="busbar 33.1.2.3" LineCode="LC-custom_8f8aed95-ea62-4f90-ad02-33933ea2cfe0" Length=1000 Units="ft"
New "Line.Line_33" Bus1="busbar 21.1.2.3" Bus2="busbar 08.1.2.3" LineCode="LC-custom_76280248-ee66-4362-9548-f56fbf567028" Length=1000 Units="ft"
New "Line.Line_34" Bus1="busbar 09.1.2.3" Bus2="busbar 15.1.2.3" LineCode="LC-custom_a861a906-8c42-4869-90aa-4592d1b084b0" Length=1000 Units="ft"
New "Line.Line_35" Bus1="busbar 12.1.2.3" Bus2="busbar 22.1.2.3" LineCode="LC-custom_0c51a13f-0791-47cb-92cf-46c9ac71bfa3" Length=1000 Units="ft"
New "Line.Line_36" Bus1="busbar 18.1.2.3" Bus2="busbar 33.1.2.3" LineCode="LC-custom_d4cc95f4-070f-4fc6-8223-ca80538a1de6" Length=1000 Units="ft"
New "Line.Line_37" Bus1="busbar 25.1.2.3" Bus2="busbar 29.1.2.3" LineCode="LC-custom_f0bef23c-8fa6-4b31-a671-19068c51a3ef" Length=1000 Units="ft"

// Voltage bases
Set VoltageBases=[12.66]
CalcVoltageBases

// Solve study
Solve BaseFrequency=60 MaxIter=300 MaxControlIter=10000



// Export results

