// PROJECT: IEEE 123 LVR Auto - https://www.xendee.com/Studio/Launch/d475cc98-3f3e-440a-a596-5bb15aeaa5e0
// STUDY: Power Flow Analysis study
// DATE GENERATED: Mon, 28 Aug 2017 16:34:17 GMT

// This script was auto-created by www.xendee.com for execution on OpenDSS version 7.6.5.13.
// Learn more about OpenDSS at http://smartgrid.epri.com/SimulationTool.aspx

Clear
Set DefaultBaseFrequency=60

// Source bus
New "Circuit.utility 01" phases=3 BasekV=115 pu=1 Angle=0 BaseMVA=100 MVAsc1=4000 MVAsc3=4000 X1=0.001 R1=0 X0=0.001 R0=0

// Loads and motors
New "Load.load 106b" Bus1="load 106b.2.0" phases=1 Conn="wye" kV=2.4 kVA=44.74272931 Pf=0.894 VminPU=0.95 Model=1
New "Load.load 68a" Bus1="load 68a.1.0" phases=1 Conn="wye" kV=2.4 kVA=22.37136465 Pf=0.894 VminPU=0.95 Model=1
New "Load.load 76a" Bus1="load 76a.1.2" phases=1 Conn="delta" kV=4.16 kVA=88.05031447 Pf=0.795 VminPU=0.95 Model=5
New "Load.load 76c" Bus1="load 76c.1.3" phases=1 Conn="delta" kV=4.16 kVA=85.995086 Pf=0.814 VminPU=0.95 Model=5
New "Load.load S100c" Bus1="load S100c.3.0" phases=1 Conn="wye" kV=2.4 kVA=44.74272931 Pf=0.894 VminPU=0.95 Model=2
New "Load.load S102c" Bus1="load S102c.3.0" phases=1 Conn="wye" kV=2.4 kVA=22.37136465 Pf=0.894 VminPU=0.95 Model=1
New "Load.load S103c" Bus1="load S103c.3.0" phases=1 Conn="wye" kV=2.4 kVA=44.74272931 Pf=0.894 VminPU=0.95 Model=1
New "Load.load S104c" Bus1="load S104c.3.0" phases=1 Conn="wye" kV=2.4 kVA=44.74272931 Pf=0.894 VminPU=0.95 Model=1
New "Load.load S107b" Bus1="load S107b.2.0" phases=1 Conn="wye" kV=2.4 kVA=44.74272931 Pf=0.894 VminPU=0.95 Model=1
New "Load.load S109a" Bus1="load S109a.1.0" phases=1 Conn="wye" kV=2.4 kVA=44.74272931 Pf=0.894 VminPU=0.95 Model=1
New "Load.load S10a" Bus1="load S10a.1.0" phases=1 Conn="wye" kV=2.4 kVA=22.37136465 Pf=0.894 VminPU=0.95 Model=5
New "Load.load S111a" Bus1="load S111a.1.0" phases=1 Conn="wye" kV=2.14 kVA=22.37136465 Pf=0.894 VminPU=0.95 Model=1
New "Load.load S112a" Bus1="load S112a.1.0" phases=1 Conn="wye" kV=2.4 kVA=22.37136465 Pf=0.894 VminPU=0.95 Model=5
New "Load.load S113a" Bus1="load S113a.1.0" phases=1 Conn="wye" kV=2.4 kVA=44.74272931 Pf=0.894 VminPU=0.95 Model=2
New "Load.load S114a" Bus1="load S114a.1.0" phases=1 Conn="wye" kV=2.4 kVA=22.37136465 Pf=0.894 VminPU=0.95 Model=1
New "Load.load S11a" Bus1="load S11a.1.0" phases=1 Conn="wye" kV=2.4 kVA=44.74272931 Pf=0.894 VminPU=0.95 Model=2
New "Load.load S12b" Bus1="load S12b.2.0" phases=1 Conn="wye" kV=2.4 kVA=22.37136465 Pf=0.894 VminPU=0.95 Model=1
New "Load.load S16c" Bus1="load S16c.3.0" phases=1 Conn="wye" kV=2.4 kVA=44.74272931 Pf=0.894 VminPU=0.95 Model=1
New "Load.load S17c" Bus1="load S17c.3.0" phases=1 Conn="wye" kV=2.4 kVA=22.37136465 Pf=0.894 VminPU=0.95 Model=1
New "Load.load S19a" Bus1="load S19a.1.0" phases=1 Conn="wye" kV=2.4 kVA=44.74272931 Pf=0.894 VminPU=0.95 Model=1
New "Load.load S1a" Bus1="load S1a.1.0" phases=1 Conn="wye" kV=2.4 kVA=44.74272931 Pf=0.894 VminPU=0.95 Model=1
New "Load.load S20a" Bus1="load S20a.1.0" phases=1 Conn="wye" kV=2.4 kVA=44.74272931 Pf=0.894 VminPU=0.95 Model=5
New "Load.load S22b" Bus1="load S22b.2.0" phases=1 Conn="wye" kV=2.4 kVA=44.74272931 Pf=0.894 VminPU=0.95 Model=2
New "Load.load S24c" Bus1="load S24c.3.0" phases=1 Conn="wye" kV=2.4 kVA=44.74272931 Pf=0.894 VminPU=0.95 Model=2
New "Load.load S28a" Bus1="load S28a.1.2.3.0" phases=3 Conn="wye" kV=4.16 kVA=44.74272931 Pf=0.894 VminPU=0.95 Model=5
New "Load.load S29a" Bus1="load S29a.1.0" phases=1 Conn="wye" kV=2.4 kVA=44.74272931 Pf=0.894 VminPU=0.95 Model=2
New "Load.load S2b" Bus1="load S2b.2.0" phases=1 Conn="wye" kV=2.4 kVA=22.37136465 Pf=0.894 VminPU=0.95 Model=1
New "Load.load S30c" Bus1="load S30c.3.0" phases=1 Conn="wye" kV=2.4 kVA=44.74272931 Pf=0.894 VminPU=0.95 Model=1
New "Load.load S31c" Bus1="load S31c.3.0" phases=1 Conn="wye" kV=2.4 kVA=22.37136465 Pf=0.894 VminPU=0.95 Model=1
New "Load.load S32c" Bus1="load S32c.3.0" phases=1 Conn="wye" kV=2.4 kVA=44.74272931 Pf=0.894 VminPU=0.95 Model=2
New "Load.load S33a" Bus1="load S33a.1.0" phases=1 Conn="wye" kV=2.4 kVA=44.74272931 Pf=0.894 VminPU=0.95 Model=5
New "Load.load S34c" Bus1="load S34c.3.0" phases=1 Conn="wye" kV=2.4 kVA=44.74272931 Pf=0.894 VminPU=0.95 Model=2
New "Load.load S35a" Bus1="load S35a.1.2" phases=1 Conn="delta" kV=4.16 kVA=44.74272931 Pf=0.894 VminPU=0.95 Model=1
New "Load.load S37a" Bus1="load S37a.1.0" phases=1 Conn="wye" kV=2.4 kVA=44.74272931 Pf=0.894 VminPU=0.95 Model=2
New "Load.load S38b" Bus1="load S38b.2.0" phases=1 Conn="wye" kV=2.4 kVA=22.37136465 Pf=0.894 VminPU=0.95 Model=5
New "Load.load S39b" Bus1="load S39b.2.0" phases=1 Conn="wye" kV=2.4 kVA=22.37136465 Pf=0.894 VminPU=0.95 Model=1
New "Load.load S41c" Bus1="load S41c.3.0" phases=1 Conn="wye" kV=2.4 kVA=22.37136465 Pf=0.894 VminPU=0.95 Model=1
New "Load.load S42a" Bus1="load S42a.1.0" phases=1 Conn="wye" kV=2.4 kVA=22.37136465 Pf=0.894 VminPU=0.95 Model=1
New "Load.load S43b" Bus1="load S43b.2.0" phases=1 Conn="wye" kV=2.4 kVA=44.74272931 Pf=0.894 VminPU=0.95 Model=2
New "Load.load S45a" Bus1="load S45a.1.0" phases=1 Conn="wye" kV=2.4 kVA=22.37136465 Pf=0.894 VminPU=0.95 Model=5
New "Load.load S46a" Bus1="load S46a.1.0" phases=1 Conn="wye" kV=2.4 kVA=22.37136465 Pf=0.894 VminPU=0.95 Model=1
New "Load.load S47" Bus1="load S47.1.2.3.0" phases=3 Conn="wye" kV=4.16 kVA=128.99262899 Pf=0.814 VminPU=0.95 Model=5
New "Load.load S48" Bus1="load S48.1.2.3.0" phases=3 Conn="wye" kV=4.16 kVA=257.98525799 Pf=0.814 VminPU=0.95 Model=2
New "Load.load S49a" Bus1="load S49a.1.0" phases=1 Conn="wye" kV=2.4 kVA=42.997543 Pf=0.814 VminPU=0.95 Model=1
New "Load.load S49b" Bus1="load S49b.2.0" phases=1 Conn="wye" kV=2.4 kVA=85.995086 Pf=0.814 VminPU=0.95 Model=1
New "Load.load S49c" Bus1="load S49c.3.0" phases=1 Conn="wye" kV=2.4 kVA=40.32258065 Pf=0.868 VminPU=0.95 Model=1
New "Load.load S4c" Bus1="load S4c.3.0" phases=1 Conn="wye" kV=2.4 kVA=44.74272931 Pf=0.894 VminPU=0.95 Model=1
New "Load.load S50c" Bus1="load S50c.3.0" phases=1 Conn="wye" kV=2.4 kVA=44.74272931 Pf=0.894 VminPU=0.95 Model=1
New "Load.load S51a" Bus1="load S51a.1.0" phases=1 Conn="wye" kV=2.4 kVA=22.37136465 Pf=0.894 VminPU=0.95 Model=1
New "Load.load S52a" Bus1="load S52a.1.0" phases=1 Conn="wye" kV=2.4 kVA=44.74272931 Pf=0.894 VminPU=0.95 Model=1
New "Load.load S53a" Bus1="load S53a.1.0" phases=1 Conn="wye" kV=2.4 kVA=44.74272931 Pf=0.894 VminPU=0.95 Model=1
New "Load.load S55a" Bus1="load S55a.1.0" phases=1 Conn="wye" kV=2.4 kVA=22.37136465 Pf=0.894 VminPU=0.95 Model=2
New "Load.load S56b" Bus1="load S56b.2.0" phases=1 Conn="wye" kV=2.4 kVA=22.37136465 Pf=0.894 VminPU=0.95 Model=1
New "Load.load S58b" Bus1="load S58b.2.0" phases=1 Conn="wye" kV=2.4 kVA=22.37136465 Pf=0.894 VminPU=0.95 Model=5
New "Load.load S59b" Bus1="load S59b.2.0" phases=1 Conn="wye" kV=2.4 kVA=22.37136465 Pf=0.894 VminPU=0.95 Model=1
New "Load.load S5c" Bus1="load S5c.3.0" phases=1 Conn="wye" kV=2.4 kVA=22.37136465 Pf=0.894 VminPU=0.95 Model=5
New "Load.load S60a" Bus1="load S60a.1.0" phases=1 Conn="wye" kV=2.4 kVA=22.37136465 Pf=0.894 VminPU=0.95 Model=1
New "Load.load S62c" Bus1="load S62c.3.0" phases=1 Conn="wye" kV=2.4 kVA=44.74272931 Pf=0.894 VminPU=0.95 Model=2
New "Load.load S63a" Bus1="load S63a.1.0" phases=1 Conn="wye" kV=2.4 kVA=44.74272931 Pf=0.894 VminPU=0.95 Model=1
New "Load.load S64b" Bus1="load S64b.2.0" phases=1 Conn="wye" kV=2.4 kVA=82.78145695 Pf=0.906 VminPU=0.95 Model=5
New "Load.load S65a" Bus1="load S65a.1.2" phases=1 Conn="delta" kV=4.16 kVA=42.997543 Pf=0.814 VminPU=0.95 Model=2
New "Load.load S65b" Bus1="load S65b.2.3" phases=1 Conn="delta" kV=4.16 kVA=42.997543 Pf=0.814 VminPU=0.95 Model=2
New "Load.load S65c" Bus1="load S65c.1.3" phases=1 Conn="delta" kV=4.16 kVA=85.995086 Pf=0.814 VminPU=0.95 Model=2
New "Load.load S66c" Bus1="load S66c.3.0" phases=1 Conn="wye" kV=2.4 kVA=82.78145695 Pf=0.906 VminPU=0.95 Model=1
New "Load.load S69a" Bus1="load S69a.1.0" phases=1 Conn="wye" kV=2.4 kVA=44.74272931 Pf=0.894 VminPU=0.95 Model=1
New "Load.load S6c" Bus1="load S6c.3.0" phases=1 Conn="wye" kV=2.4 kVA=44.74272931 Pf=0.894 VminPU=0.95 Model=2
New "Load.load S70a" Bus1="load S70a.1.0" phases=1 Conn="wye" kV=2.4 kVA=22.37136465 Pf=0.894 VminPU=0.95 Model=1
New "Load.load S71a" Bus1="load S71a.1.0" phases=1 Conn="wye" kV=2.4 kVA=44.74272931 Pf=0.894 VminPU=0.95 Model=1
New "Load.load S73c" Bus1="load S73c.3.0" phases=1 Conn="wye" kV=2.4 kVA=44.74272931 Pf=0.894 VminPU=0.95 Model=1
New "Load.load S74c" Bus1="load S74c.3.0" phases=1 Conn="wye" kV=2.4 kVA=44.74272931 Pf=0.894 VminPU=0.95 Model=2
New "Load.load S75c" Bus1="load S75c.3.0" phases=1 Conn="wye" kV=2.4 kVA=44.74272931 Pf=0.894 VminPU=0.95 Model=1
New "Load.load S76b" Bus1="load S76b.2.3" phases=1 Conn="delta" kV=4.16 kVA=85.995086 Pf=0.814 VminPU=0.95 Model=5
New "Load.load S77b" Bus1="load S77b.2.0" phases=1 Conn="wye" kV=2.4 kVA=44.74272931 Pf=0.894 VminPU=0.95 Model=1
New "Load.load S79a" Bus1="load S79a.1.0" phases=1 Conn="wye" kV=2.4 kVA=44.74272931 Pf=0.894 VminPU=0.95 Model=2
New "Load.load S7a" Bus1="load S7a.1.0" phases=1 Conn="wye" kV=2.4 kVA=22.37136465 Pf=0.894 VminPU=0.95 Model=1
New "Load.load S80b" Bus1="load S80b.2.0" phases=1 Conn="wye" kV=2.4 kVA=44.74272931 Pf=0.894 VminPU=0.95 Model=1
New "Load.load S82a" Bus1="load S82a.1.0" phases=1 Conn="wye" kV=2.4 kVA=44.74272931 Pf=0.894 VminPU=0.95 Model=1
New "Load.load S83c" Bus1="load S83c.3.0" phases=1 Conn="wye" kV=2.4 kVA=22.37136465 Pf=0.894 VminPU=0.95 Model=1
New "Load.load S84c" Bus1="load S84c.3.0" phases=1 Conn="wye" kV=2.4 kVA=22.37136465 Pf=0.894 VminPU=0.95 Model=1
New "Load.load S86b" Bus1="load S86b.2.0" phases=1 Conn="wye" kV=2.4 kVA=22.37136465 Pf=0.894 VminPU=0.95 Model=1
New "Load.load S87b" Bus1="load S87b.2.0" phases=1 Conn="wye" kV=2.4 kVA=44.74272931 Pf=0.894 VminPU=0.95 Model=1
New "Load.load S88a" Bus1="load S88a.1.0" phases=1 Conn="wye" kV=2.4 kVA=44.74272931 Pf=0.894 VminPU=0.95 Model=1
New "Load.load S90b" Bus1="load S90b.2.0" phases=1 Conn="wye" kV=2.4 kVA=44.74272931 Pf=0.894 VminPU=0.95 Model=5
New "Load.load S92c" Bus1="load S92c.3.0" phases=1 Conn="wye" kV=2.4 kVA=44.74272931 Pf=0.894 VminPU=0.95 Model=1
New "Load.load S94a" Bus1="load S94a.1.0" phases=1 Conn="wye" kV=2.4 kVA=44.74272931 Pf=0.894 VminPU=0.95 Model=1
New "Load.load S95b" Bus1="load S95b.2.0" phases=1 Conn="wye" kV=2.4 kVA=22.37136465 Pf=0.894 VminPU=0.95 Model=1
New "Load.load S98a" Bus1="load S98a.1.0" phases=1 Conn="wye" kV=2.4 kVA=44.74272931 Pf=0.894 VminPU=0.95 Model=1
New "Load.load S99b" Bus1="load S99b.2.0" phases=1 Conn="wye" kV=2.4 kVA=44.74272931 Pf=0.894 VminPU=0.95 Model=1
New "Load.load S9a" Bus1="load S9a.1.0" phases=1 Conn="wye" kV=2.4 kVA=44.74272931 Pf=0.894 VminPU=0.95 Model=1

// Capacitors
New "Capacitor.capacitor 01" Bus1="capacitor 01.1.2.3" Bus2="capacitor 01.0.0.0" phases=3 Conn="wye" kV=4.16 kVAR=600
New "Capacitor.capacitor 02" Bus1="capacitor 02.1" Bus2="capacitor 02.0" phases=1 Conn="wye" kV=2.4 kVAR=50
New "Capacitor.capacitor 03" Bus1="capacitor 03.2" Bus2="capacitor 03.0" phases=1 Conn="wye" kV=2.4 kVAR=50
New "Capacitor.capacitor 04" Bus1="capacitor 04.3" Bus2="capacitor 04.0" phases=1 Conn="wye" kV=2.4 kVAR=50

// Wire data
New "WireData.WD-IEEE 336.4 ACSR" Rac=0.057955 GMRac=0.0244 Diam=0.721 Normamps=530 Runits="kft" GMRunits="ft" Radunits="in"
New "WireData.WD-IEEE 4/0 ACSR" Rac=0.112121 GMRac=0.00814 Diam=0.563 Normamps=340 Runits="kft" GMRunits="ft" Radunits="in"
New "WireData.WD-IEEE 1/0 ACSR" Rac=0.212121 GMRac=0.00446 Diam=0.398 Normamps=230 Runits="kft" GMRunits="ft" Radunits="in"

// Wire geometery data
New "LineGeometry.GD-L115" nconds=4 nphases=3
~ cond=1 wire="WD-IEEE 336.4 ACSR" X=-3.5 h=28 Units="ft"
~ cond=2 wire="WD-IEEE 336.4 ACSR" X=-1.5 h=28 Units="ft"
~ cond=3 wire="WD-IEEE 336.4 ACSR" X=3.5 h=28 Units="ft"
~ cond=4 wire="WD-IEEE 4/0 ACSR" X=0.5 h=24 Units="ft" reduce="y"
New "LineGeometry.GD-Line L1" nconds=2 nphases=1
~ cond=1 wire="WD-IEEE 1/0 ACSR" X=0 h=29 Units="ft"
~ cond=2 wire="WD-IEEE 1/0 ACSR" X=0.5 h=24 Units="ft" reduce="y"
New "LineGeometry.GD-Line L10" nconds=4 nphases=3
~ cond=1 wire="WD-IEEE 336.4 ACSR" X=-3.5 h=28 Units="ft"
~ cond=2 wire="WD-IEEE 336.4 ACSR" X=-1.5 h=28 Units="ft"
~ cond=3 wire="WD-IEEE 336.4 ACSR" X=3.5 h=28 Units="ft"
~ cond=4 wire="WD-IEEE 4/0 ACSR" X=0.5 h=24 Units="ft" reduce="y"
New "LineGeometry.GD-Line L100" nconds=2 nphases=1
~ cond=1 wire="WD-IEEE 1/0 ACSR" X=0 h=29 Units="ft"
~ cond=2 wire="WD-IEEE 1/0 ACSR" X=0.5 h=24 Units="ft" reduce="y"
New "LineGeometry.GD-Line L101" nconds=4 nphases=3
~ cond=1 wire="WD-IEEE 336.4 ACSR" X=3.5 h=28 Units="ft"
~ cond=2 wire="WD-IEEE 336.4 ACSR" X=-3.5 h=28 Units="ft"
~ cond=3 wire="WD-IEEE 336.4 ACSR" X=-1.5 h=28 Units="ft"
~ cond=4 wire="WD-IEEE 4/0 ACSR" X=0.5 h=24 Units="ft" reduce="y"
New "LineGeometry.GD-Line L102" nconds=2 nphases=1
~ cond=1 wire="WD-IEEE 1/0 ACSR" X=0 h=29 Units="ft"
~ cond=2 wire="WD-IEEE 1/0 ACSR" X=0.5 h=24 Units="ft" reduce="y"
New "LineGeometry.GD-Line L103" nconds=2 nphases=1
~ cond=1 wire="WD-IEEE 1/0 ACSR" X=0 h=29 Units="ft"
~ cond=2 wire="WD-IEEE 1/0 ACSR" X=0.5 h=24 Units="ft" reduce="y"
New "LineGeometry.GD-Line L104" nconds=2 nphases=1
~ cond=1 wire="WD-IEEE 1/0 ACSR" X=0 h=29 Units="ft"
~ cond=2 wire="WD-IEEE 1/0 ACSR" X=0.5 h=24 Units="ft" reduce="y"
New "LineGeometry.GD-Line L105" nconds=4 nphases=3
~ cond=1 wire="WD-IEEE 336.4 ACSR" X=3.5 h=28 Units="ft"
~ cond=2 wire="WD-IEEE 336.4 ACSR" X=-3.5 h=28 Units="ft"
~ cond=3 wire="WD-IEEE 336.4 ACSR" X=-1.5 h=28 Units="ft"
~ cond=4 wire="WD-IEEE 4/0 ACSR" X=0.5 h=24 Units="ft" reduce="y"
New "LineGeometry.GD-Line L106" nconds=2 nphases=1
~ cond=1 wire="WD-IEEE 1/0 ACSR" X=0 h=29 Units="ft"
~ cond=2 wire="WD-IEEE 1/0 ACSR" X=0.5 h=24 Units="ft" reduce="y"
New "LineGeometry.GD-Line L107" nconds=2 nphases=1
~ cond=1 wire="WD-IEEE 1/0 ACSR" X=0 h=29 Units="ft"
~ cond=2 wire="WD-IEEE 1/0 ACSR" X=0.5 h=24 Units="ft" reduce="y"
New "LineGeometry.GD-Line L108" nconds=4 nphases=3
~ cond=1 wire="WD-IEEE 336.4 ACSR" X=3.5 h=28 Units="ft"
~ cond=2 wire="WD-IEEE 336.4 ACSR" X=-3.5 h=28 Units="ft"
~ cond=3 wire="WD-IEEE 336.4 ACSR" X=-1.5 h=28 Units="ft"
~ cond=4 wire="WD-IEEE 4/0 ACSR" X=0.5 h=24 Units="ft" reduce="y"
New "LineGeometry.GD-Line L109" nconds=2 nphases=1
~ cond=1 wire="WD-IEEE 1/0 ACSR" X=0 h=29 Units="ft"
~ cond=2 wire="WD-IEEE 1/0 ACSR" X=0.5 h=24 Units="ft" reduce="y"
New "LineGeometry.GD-Line L11" nconds=2 nphases=1
~ cond=1 wire="WD-IEEE 1/0 ACSR" X=0 h=29 Units="ft"
~ cond=2 wire="WD-IEEE 1/0 ACSR" X=0.5 h=24 Units="ft" reduce="y"
New "LineGeometry.GD-Line L110" nconds=2 nphases=1
~ cond=1 wire="WD-IEEE 1/0 ACSR" X=0 h=29 Units="ft"
~ cond=2 wire="WD-IEEE 1/0 ACSR" X=0.5 h=24 Units="ft" reduce="y"
New "LineGeometry.GD-Line L111" nconds=2 nphases=1
~ cond=1 wire="WD-IEEE 1/0 ACSR" X=0 h=29 Units="ft"
~ cond=2 wire="WD-IEEE 1/0 ACSR" X=0.5 h=24 Units="ft" reduce="y"
New "LineGeometry.GD-Line L112" nconds=2 nphases=1
~ cond=1 wire="WD-IEEE 1/0 ACSR" X=0 h=29 Units="ft"
~ cond=2 wire="WD-IEEE 1/0 ACSR" X=0.5 h=24 Units="ft" reduce="y"
New "LineGeometry.GD-Line L113" nconds=2 nphases=1
~ cond=1 wire="WD-IEEE 1/0 ACSR" X=0 h=29 Units="ft"
~ cond=2 wire="WD-IEEE 1/0 ACSR" X=0.5 h=24 Units="ft" reduce="y"
New "LineGeometry.GD-Line L114" nconds=4 nphases=3
~ cond=1 wire="WD-IEEE 336.4 ACSR" X=3.5 h=28 Units="ft"
~ cond=2 wire="WD-IEEE 336.4 ACSR" X=-1.5 h=28 Units="ft"
~ cond=3 wire="WD-IEEE 336.4 ACSR" X=-3.5 h=28 Units="ft"
~ cond=4 wire="WD-IEEE 4/0 ACSR" X=0.05 h=24 Units="ft" reduce="y"
New "LineGeometry.GD-Line L116" nconds=4 nphases=3
~ cond=1 wire="WD-IEEE 336.4 ACSR" X=-3.5 h=28 Units="ft"
~ cond=2 wire="WD-IEEE 336.4 ACSR" X=-1.5 h=28 Units="ft"
~ cond=3 wire="WD-IEEE 336.4 ACSR" X=3.5 h=28 Units="ft"
~ cond=4 wire="WD-IEEE 4/0 ACSR" X=0.5 h=24 Units="ft" reduce="y"
New "LineGeometry.GD-Line L117" nconds=4 nphases=3
~ cond=1 wire="WD-IEEE 336.4 ACSR" X=-3.5 h=28 Units="ft"
~ cond=2 wire="WD-IEEE 336.4 ACSR" X=3.5 h=28 Units="ft"
~ cond=3 wire="WD-IEEE 336.4 ACSR" X=-1.5 h=28 Units="ft"
~ cond=4 wire="WD-IEEE 4/0 ACSR" X=0.5 h=24 Units="ft" reduce="y"
New "LineGeometry.GD-Line L118" nconds=4 nphases=3
~ cond=1 wire="WD-IEEE 336.4 ACSR" X=3.5 h=28 Units="ft"
~ cond=2 wire="WD-IEEE 336.4 ACSR" X=-3.5 h=28 Units="ft"
~ cond=3 wire="WD-IEEE 336.4 ACSR" X=-1.5 h=28 Units="ft"
~ cond=4 wire="WD-IEEE 4/0 ACSR" X=0.5 h=24 Units="ft" reduce="y"
New "LineGeometry.GD-Line L12" nconds=2 nphases=1
~ cond=1 wire="WD-IEEE 1/0 ACSR" X=0 h=29 Units="ft"
~ cond=2 wire="WD-IEEE 1/0 ACSR" X=0.5 h=24 Units="ft" reduce="y"
New "LineGeometry.GD-Line L13" nconds=4 nphases=3
~ cond=1 wire="WD-IEEE 336.4 ACSR" X=-1.5 h=28 Units="ft"
~ cond=2 wire="WD-IEEE 336.4 ACSR" X=3.5 h=28 Units="ft"
~ cond=3 wire="WD-IEEE 336.4 ACSR" X=-3.5 h=28 Units="ft"
~ cond=4 wire="WD-IEEE 4/0 ACSR" X=0.5 h=24 Units="ft" reduce="y"
New "LineGeometry.GD-Line L15" nconds=2 nphases=1
~ cond=1 wire="WD-IEEE 1/0 ACSR" X=0 h=29 Units="ft"
~ cond=2 wire="WD-IEEE 1/0 ACSR" X=0.5 h=24 Units="ft" reduce="y"
New "LineGeometry.GD-Line L16" nconds=2 nphases=1
~ cond=1 wire="WD-IEEE 1/0 ACSR" X=0 h=29 Units="ft"
~ cond=2 wire="WD-IEEE 1/0 ACSR" X=0.5 h=24 Units="ft" reduce="y"
New "LineGeometry.GD-Line L17" nconds=2 nphases=1
~ cond=1 wire="WD-IEEE 1/0 ACSR" X=0 h=29 Units="ft"
~ cond=2 wire="WD-IEEE 1/0 ACSR" X=0.5 h=24 Units="ft" reduce="y"
New "LineGeometry.GD-Line L18" nconds=2 nphases=1
~ cond=1 wire="WD-IEEE 1/0 ACSR" X=0 h=29 Units="ft"
~ cond=2 wire="WD-IEEE 1/0 ACSR" X=0.5 h=24 Units="ft" reduce="y"
New "LineGeometry.GD-Line L19" nconds=4 nphases=3
~ cond=1 wire="WD-IEEE 336.4 ACSR" X=-1.5 h=28 Units="ft"
~ cond=2 wire="WD-IEEE 336.4 ACSR" X=3.5 h=28 Units="ft"
~ cond=3 wire="WD-IEEE 336.4 ACSR" X=-3.5 h=28 Units="ft"
~ cond=4 wire="WD-IEEE 4/0 ACSR" X=0.5 h=24 Units="ft" reduce="y"
New "LineGeometry.GD-Line L2" nconds=2 nphases=1
~ cond=1 wire="WD-IEEE 1/0 ACSR" X=0 h=29 Units="ft"
~ cond=2 wire="WD-IEEE 1/0 ACSR" X=0.5 h=24 Units="ft" reduce="y"
New "LineGeometry.GD-Line L20" nconds=2 nphases=1
~ cond=1 wire="WD-IEEE 1/0 ACSR" X=0 h=28 Units="ft"
~ cond=2 wire="WD-IEEE 1/0 ACSR" X=0.5 h=24 Units="ft" reduce="y"
New "LineGeometry.GD-Line L21" nconds=2 nphases=1
~ cond=1 wire="WD-IEEE 1/0 ACSR" X=0 h=29 Units="ft"
~ cond=2 wire="WD-IEEE 1/0 ACSR" X=0.5 h=24 Units="ft" reduce="y"
New "LineGeometry.GD-Line L22" nconds=4 nphases=3
~ cond=1 wire="WD-IEEE 336.4 ACSR" X=-1.5 h=28 Units="ft"
~ cond=2 wire="WD-IEEE 336.4 ACSR" X=3.5 h=28 Units="ft"
~ cond=3 wire="WD-IEEE 336.4 ACSR" X=-3.5 h=28 Units="ft"
~ cond=4 wire="WD-IEEE 4/0 ACSR" X=0.5 h=24 Units="ft" reduce="y"
New "LineGeometry.GD-Line L23" nconds=2 nphases=1
~ cond=1 wire="WD-IEEE 1/0 ACSR" X=0 h=29 Units="ft"
~ cond=2 wire="WD-IEEE 1/0 ACSR" X=0.5 h=24 Units="ft" reduce="y"
New "LineGeometry.GD-Line L24" nconds=4 nphases=3
~ cond=1 wire="WD-IEEE 336.4 ACSR" X=-3.5 h=28 Units="ft"
~ cond=2 wire="WD-IEEE 336.4 ACSR" X=-1.5 h=28 Units="ft"
~ cond=3 wire="WD-IEEE 336.4 ACSR" X=3.5 h=28 Units="ft"
~ cond=4 wire="WD-IEEE 4/0 ACSR" X=0.5 h=24 Units="ft" reduce="y"
New "LineGeometry.GD-Line L25a" nconds=2 nphases=1
~ cond=1 wire="WD-IEEE 1/0 ACSR" X=-3.5 h=28 Units="ft"
~ cond=2 wire="WD-IEEE 1/0 ACSR" X=0.5 h=24 Units="ft" reduce="y"
New "LineGeometry.GD-Line L25c" nconds=2 nphases=1
~ cond=1 wire="WD-IEEE 1/0 ACSR" X=3.5 h=28 Units="ft"
~ cond=2 wire="WD-IEEE 1/0 ACSR" X=0.5 h=24 Units="ft" reduce="y"
New "LineGeometry.GD-Line L26" nconds=4 nphases=3
~ cond=1 wire="WD-IEEE 336.4 ACSR" X=-1.5 h=28 Units="ft"
~ cond=2 wire="WD-IEEE 336.4 ACSR" X=3.5 h=28 Units="ft"
~ cond=3 wire="WD-IEEE 336.4 ACSR" X=-3.5 h=28 Units="ft"
~ cond=4 wire="WD-IEEE 4/0 ACSR" X=0.5 h=24 Units="ft" reduce="y"
New "LineGeometry.GD-Line L27a" nconds=2 nphases=1
~ cond=1 wire="WD-IEEE 1/0 ACSR" X=-3.5 h=28 Units="ft"
~ cond=2 wire="WD-IEEE 1/0 ACSR" X=0.5 h=24 Units="ft" reduce="y"
New "LineGeometry.GD-Line L27c" nconds=2 nphases=1
~ cond=1 wire="WD-IEEE 1/0 ACSR" X=3.5 h=28 Units="ft"
~ cond=2 wire="WD-IEEE 1/0 ACSR" X=0.5 h=24 Units="ft" reduce="y"
New "LineGeometry.GD-Line L28" nconds=2 nphases=1
~ cond=1 wire="WD-IEEE 1/0 ACSR" X=-3.5 h=28 Units="ft"
~ cond=2 wire="WD-IEEE 1/0 ACSR" X=0.5 h=24 Units="ft" reduce="y"
New "LineGeometry.GD-Line L29" nconds=2 nphases=1
~ cond=1 wire="WD-IEEE 1/0 ACSR" X=-3.5 h=28 Units="ft"
~ cond=2 wire="WD-IEEE 1/0 ACSR" X=0.05 h=24 Units="ft" reduce="y"
New "LineGeometry.GD-Line L3" nconds=4 nphases=3
~ cond=1 wire="WD-IEEE 336.4 ACSR" X=-3.5 h=28 Units="ft"
~ cond=2 wire="WD-IEEE 336.4 ACSR" X=-1.5 h=28 Units="ft"
~ cond=3 wire="WD-IEEE 336.4 ACSR" X=3.5 h=28 Units="ft"
~ cond=4 wire="WD-IEEE 4/0 ACSR" X=0.5 h=24 Units="ft" reduce="y"
New "LineGeometry.GD-Line L30" nconds=4 nphases=3
~ cond=1 wire="WD-IEEE 336.4 ACSR" X=-1.5 h=28 Units="ft"
~ cond=2 wire="WD-IEEE 336.4 ACSR" X=3.5 h=28 Units="ft"
~ cond=3 wire="WD-IEEE 336.4 ACSR" X=-3.5 h=28 Units="ft"
~ cond=4 wire="WD-IEEE 4/0 ACSR" X=0.5 h=24 Units="ft" reduce="y"
New "LineGeometry.GD-Line L31" nconds=4 nphases=3
~ cond=1 wire="WD-IEEE 336.4 ACSR" X=-1.5 h=28 Units="ft"
~ cond=2 wire="WD-IEEE 336.4 ACSR" X=3.5 h=28 Units="ft"
~ cond=3 wire="WD-IEEE 336.4 ACSR" X=-3.5 h=28 Units="ft"
~ cond=4 wire="WD-IEEE 4/0 ACSR" X=0.5 h=24 Units="ft" reduce="y"
New "LineGeometry.GD-Line L32" nconds=4 nphases=3
~ cond=1 wire="WD-IEEE 336.4 ACSR" X=-1.5 h=28 Units="ft"
~ cond=2 wire="WD-IEEE 336.4 ACSR" X=3.5 h=28 Units="ft"
~ cond=3 wire="WD-IEEE 336.4 ACSR" X=-3.5 h=28 Units="ft"
~ cond=4 wire="WD-IEEE 4/0 ACSR" X=0.5 h=24 Units="ft" reduce="y"
New "LineGeometry.GD-Line L33" nconds=2 nphases=1
~ cond=1 wire="WD-IEEE 1/0 ACSR" X=0 h=29 Units="ft"
~ cond=2 wire="WD-IEEE 1/0 ACSR" X=0.5 h=24 Units="ft" reduce="y"
New "LineGeometry.GD-Line L34" nconds=2 nphases=1
~ cond=1 wire="WD-IEEE 1/0 ACSR" X=0 h=29 Units="ft"
~ cond=2 wire="WD-IEEE 1/0 ACSR" X=0.5 h=24 Units="ft" reduce="y"
New "LineGeometry.GD-Line L35a" nconds=2 nphases=1
~ cond=1 wire="WD-IEEE 1/0 ACSR" X=-3.5 h=28 Units="ft"
~ cond=2 wire="WD-IEEE 1/0 ACSR" X=0.5 h=24 Units="ft" reduce="y"
New "LineGeometry.GD-Line L35b" nconds=2 nphases=1
~ cond=1 wire="WD-IEEE 1/0 ACSR" X=3.5 h=28 Units="ft"
~ cond=2 wire="WD-IEEE 1/0 ACSR" X=0.5 h=24 Units="ft" reduce="y"
New "LineGeometry.GD-Line L36" nconds=4 nphases=3
~ cond=1 wire="WD-IEEE 336.4 ACSR" X=-3.5 h=28 Units="ft"
~ cond=2 wire="WD-IEEE 336.4 ACSR" X=-1.5 h=28 Units="ft"
~ cond=3 wire="WD-IEEE 336.4 ACSR" X=3.5 h=28 Units="ft"
~ cond=4 wire="WD-IEEE 4/0 ACSR" X=0.5 h=24 Units="ft" reduce="y"
New "LineGeometry.GD-Line L37" nconds=2 nphases=1
~ cond=1 wire="WD-IEEE 1/0 ACSR" X=0 h=29 Units="ft"
~ cond=2 wire="WD-IEEE 1/0 ACSR" X=0 h=24 Units="ft" reduce="y"
New "LineGeometry.GD-Line L38" nconds=2 nphases=1
~ cond=1 wire="WD-IEEE 1/0 ACSR" X=0 h=29 Units="ft"
~ cond=2 wire="WD-IEEE 1/0 ACSR" X=0.5 h=24 Units="ft" reduce="y"
New "LineGeometry.GD-Line L39" nconds=2 nphases=1
~ cond=1 wire="WD-IEEE 1/0 ACSR" X=0 h=29 Units="ft"
~ cond=2 wire="WD-IEEE 1/0 ACSR" X=0.5 h=24 Units="ft" reduce="y"
New "LineGeometry.GD-Line L4" nconds=2 nphases=1
~ cond=1 wire="WD-IEEE 1/0 ACSR" X=0 h=29 Units="ft"
~ cond=2 wire="WD-IEEE 1/0 ACSR" X=0.5 h=24 Units="ft" reduce="y"
New "LineGeometry.GD-Line L40" nconds=2 nphases=1
~ cond=1 wire="WD-IEEE 1/0 ACSR" X=-0.5 h=29 Units="ft"
~ cond=2 wire="WD-IEEE 1/0 ACSR" X=0 h=24 Units="ft" reduce="y"
New "LineGeometry.GD-Line L41" nconds=4 nphases=3
~ cond=1 wire="WD-IEEE 336.4 ACSR" X=-3.5 h=28 Units="ft"
~ cond=2 wire="WD-IEEE 336.4 ACSR" X=-1.5 h=28 Units="ft"
~ cond=3 wire="WD-IEEE 336.4 ACSR" X=3.5 h=28 Units="ft"
~ cond=4 wire="WD-IEEE 4/0 ACSR" X=0.5 h=24 Units="ft" reduce="y"
New "LineGeometry.GD-Line L42" nconds=2 nphases=1
~ cond=1 wire="WD-IEEE 1/0 ACSR" X=0 h=29 Units="ft"
~ cond=2 wire="WD-IEEE 1/0 ACSR" X=0.5 h=24 Units="ft" reduce="y"
New "LineGeometry.GD-Line L43" nconds=4 nphases=3
~ cond=1 wire="WD-IEEE 336.4 ACSR" X=-3.5 h=28 Units="ft"
~ cond=2 wire="WD-IEEE 336.4 ACSR" X=-1.5 h=28 Units="ft"
~ cond=3 wire="WD-IEEE 336.4 ACSR" X=3.5 h=28 Units="ft"
~ cond=4 wire="WD-IEEE 4/0 ACSR" X=0.5 h=24 Units="ft" reduce="y"
New "LineGeometry.GD-Line L44" nconds=2 nphases=1
~ cond=1 wire="WD-IEEE 1/0 ACSR" X=0 h=29 Units="ft"
~ cond=2 wire="WD-IEEE 1/0 ACSR" X=0.5 h=24 Units="ft" reduce="y"
New "LineGeometry.GD-Line L45" nconds=4 nphases=3
~ cond=1 wire="WD-IEEE 336.4 ACSR" X=-3.5 h=28 Units="ft"
~ cond=2 wire="WD-IEEE 336.4 ACSR" X=-1.5 h=28 Units="ft"
~ cond=3 wire="WD-IEEE 336.4 ACSR" X=3.5 h=28 Units="ft"
~ cond=4 wire="WD-IEEE 4/0 ACSR" X=0.5 h=24 Units="ft" reduce="y"
New "LineGeometry.GD-Line L46" nconds=2 nphases=1
~ cond=1 wire="WD-IEEE 1/0 ACSR" X=0 h=29 Units="ft"
~ cond=2 wire="WD-IEEE 1/0 ACSR" X=0.5 h=24 Units="ft" reduce="y"
New "LineGeometry.GD-Line L47" nconds=4 nphases=3
~ cond=1 wire="WD-IEEE 336.4 ACSR" X=3.5 h=28 Units="ft"
~ cond=2 wire="WD-IEEE 336.4 ACSR" X=-1.5 h=28 Units="ft"
~ cond=3 wire="WD-IEEE 336.4 ACSR" X=-3.5 h=28 Units="ft"
~ cond=4 wire="WD-IEEE 4/0 ACSR" X=0.5 h=24 Units="ft" reduce="y"
New "LineGeometry.GD-Line L48" nconds=4 nphases=3
~ cond=1 wire="WD-IEEE 336.4 ACSR" X=3.5 h=28 Units="ft"
~ cond=2 wire="WD-IEEE 336.4 ACSR" X=-1.5 h=28 Units="ft"
~ cond=3 wire="WD-IEEE 336.4 ACSR" X=-3.5 h=28 Units="ft"
~ cond=4 wire="WD-IEEE 4/0 ACSR" X=0.5 h=24 Units="ft" reduce="y"
New "LineGeometry.GD-Line L49" nconds=4 nphases=3
~ cond=1 wire="WD-IEEE 336.4 ACSR" X=3.5 h=28 Units="ft"
~ cond=2 wire="WD-IEEE 336.4 ACSR" X=-1.5 h=28 Units="ft"
~ cond=3 wire="WD-IEEE 336.4 ACSR" X=-3.5 h=28 Units="ft"
~ cond=4 wire="WD-IEEE 4/0 ACSR" X=0.5 h=24 Units="ft" reduce="y"
New "LineGeometry.GD-Line L5" nconds=2 nphases=1
~ cond=1 wire="WD-IEEE 1/0 ACSR" X=0 h=29 Units="ft"
~ cond=2 wire="WD-IEEE 1/0 ACSR" X=0.5 h=24 Units="ft" reduce="y"
New "LineGeometry.GD-Line L50" nconds=4 nphases=3
~ cond=1 wire="WD-IEEE 336.4 ACSR" X=3.5 h=28 Units="ft"
~ cond=2 wire="WD-IEEE 336.4 ACSR" X=-1.5 h=28 Units="ft"
~ cond=3 wire="WD-IEEE 336.4 ACSR" X=-3.5 h=28 Units="ft"
~ cond=4 wire="WD-IEEE 4/0 ACSR" X=0.5 h=24 Units="ft" reduce="y"
New "LineGeometry.GD-line L51" nconds=4 nphases=3
~ cond=1 wire="WD-IEEE 336.4 ACSR" X=3.5 h=28 Units="ft"
~ cond=2 wire="WD-IEEE 336.4 ACSR" X=-1.5 h=28 Units="ft"
~ cond=3 wire="WD-IEEE 336.4 ACSR" X=-3.5 h=28 Units="ft"
~ cond=4 wire="WD-IEEE 4/0 ACSR" X=0.5 h=24 Units="ft" reduce="y"
New "LineGeometry.GD-Line L52" nconds=4 nphases=3
~ cond=1 wire="WD-IEEE 336.4 ACSR" X=-3.5 h=28 Units="ft"
~ cond=2 wire="WD-IEEE 336.4 ACSR" X=-1.5 h=28 Units="ft"
~ cond=3 wire="WD-IEEE 336.4 ACSR" X=3.5 h=28 Units="ft"
~ cond=4 wire="WD-IEEE 4/0 ACSR" X=0.5 h=24 Units="ft" reduce="y"
New "LineGeometry.GD-Line L53" nconds=4 nphases=3
~ cond=1 wire="WD-IEEE 336.4 ACSR" X=-3.5 h=28 Units="ft"
~ cond=2 wire="WD-IEEE 336.4 ACSR" X=-1.5 h=28 Units="ft"
~ cond=3 wire="WD-IEEE 336.4 ACSR" X=3.5 h=28 Units="ft"
~ cond=4 wire="WD-IEEE 4/0 ACSR" X=0.5 h=24 Units="ft" reduce="y"
New "LineGeometry.GD-Line L54" nconds=4 nphases=3
~ cond=1 wire="WD-IEEE 336.4 ACSR" X=-3.5 h=28 Units="ft"
~ cond=2 wire="WD-IEEE 336.4 ACSR" X=-1.5 h=28 Units="ft"
~ cond=3 wire="WD-IEEE 336.4 ACSR" X=3.5 h=28 Units="ft"
~ cond=4 wire="WD-IEEE 4/0 ACSR" X=0.5 h=24 Units="ft" reduce="y"
New "LineGeometry.GD-Line L55" nconds=4 nphases=3
~ cond=1 wire="WD-IEEE 336.4 ACSR" X=3.5 h=28 Units="ft"
~ cond=2 wire="WD-IEEE 336.4 ACSR" X=-3.5 h=28 Units="ft"
~ cond=3 wire="WD-IEEE 336.4 ACSR" X=-1.5 h=28 Units="ft"
~ cond=4 wire="WD-IEEE 4/0 ACSR" X=0.5 h=24 Units="ft" reduce="y"
New "LineGeometry.GD-Line L56" nconds=4 nphases=3
~ cond=1 wire="WD-IEEE 336.4 ACSR" X=-3.5 h=28 Units="ft"
~ cond=2 wire="WD-IEEE 336.4 ACSR" X=-1.5 h=28 Units="ft"
~ cond=3 wire="WD-IEEE 336.4 ACSR" X=3.5 h=28 Units="ft"
~ cond=4 wire="WD-IEEE 4/0 ACSR" X=0.5 h=24 Units="ft" reduce="y"
New "LineGeometry.GD-Line L57" nconds=2 nphases=1
~ cond=1 wire="WD-IEEE 1/0 ACSR" X=0 h=29 Units="ft"
~ cond=2 wire="WD-IEEE 1/0 ACSR" X=0.5 h=24 Units="ft" reduce="y"
New "LineGeometry.GD-Line L58" nconds=4 nphases=3
~ cond=1 wire="WD-IEEE 336.4 ACSR" X=3.5 h=28 Units="ft"
~ cond=2 wire="WD-IEEE 336.4 ACSR" X=-3.5 h=28 Units="ft"
~ cond=3 wire="WD-IEEE 336.4 ACSR" X=-1.5 h=28 Units="ft"
~ cond=4 wire="WD-IEEE 4/0 ACSR" X=0.5 h=24 Units="ft" reduce="y"
New "LineGeometry.GD-Line L59" nconds=2 nphases=1
~ cond=1 wire="WD-IEEE 1/0 ACSR" X=0 h=29 Units="ft"
~ cond=2 wire="WD-IEEE 1/0 ACSR" X=0.5 h=24 Units="ft" reduce="y"
New "LineGeometry.GD-Line L6" nconds=2 nphases=1
~ cond=1 wire="WD-IEEE 1/0 ACSR" X=0 h=29 Units="ft"
~ cond=2 wire="WD-IEEE 1/0 ACSR" X=0.5 h=24 Units="ft" reduce="y"
New "LineGeometry.GD-Line L60" nconds=4 nphases=3
~ cond=1 wire="WD-IEEE 336.4 ACSR" X=-1.5 h=28 Units="ft"
~ cond=2 wire="WD-IEEE 336.4 ACSR" X=-3.5 h=28 Units="ft"
~ cond=3 wire="WD-IEEE 336.4 ACSR" X=3.5 h=28 Units="ft"
~ cond=4 wire="WD-IEEE 4/0 ACSR" X=0.5 h=24 Units="ft" reduce="y"
New "LineGeometry.GD-Line L66" nconds=2 nphases=1
~ cond=1 wire="WD-IEEE 1/0 ACSR" X=0 h=29 Units="ft"
~ cond=2 wire="WD-IEEE 1/0 ACSR" X=0.5 h=24 Units="ft" reduce="y"
New "LineGeometry.GD-Line L67" nconds=4 nphases=3
~ cond=1 wire="WD-IEEE 336.4 ACSR" X=3.5 h=28 Units="ft"
~ cond=2 wire="WD-IEEE 336.4 ACSR" X=-3.5 h=28 Units="ft"
~ cond=3 wire="WD-IEEE 336.4 ACSR" X=-1.5 h=28 Units="ft"
~ cond=4 wire="WD-IEEE 4/0 ACSR" X=0.5 h=24 Units="ft" reduce="y"
New "LineGeometry.GD-Line L68" nconds=4 nphases=3
~ cond=1 wire="WD-IEEE 336.4 ACSR" X=3.5 h=28 Units="ft"
~ cond=2 wire="WD-IEEE 336.4 ACSR" X=-3.5 h=28 Units="ft"
~ cond=3 wire="WD-IEEE 336.4 ACSR" X=-1.5 h=28 Units="ft"