// PROJECT: 13BusBalanced - https://www.xendee.com/Studio/Launch/f0a6169f-901f-4ee7-a31d-da4dfc829aab
// STUDY: BaseStudy
// DATE GENERATED: Fri, 25 May 2018 01:38:37 GMT

// This script was auto-created by www.xendee.com for execution on OpenDSS version 7.6.5.13.
// Learn more about OpenDSS at http://smartgrid.epri.com/SimulationTool.aspx

Clear

// Source bus
New "Circuit.utility_01" phases=3 BasekV=4.16 pu=1.01995192 Angle=0 BaseMVA=100 MVAsc1=100 MVAsc3=100 X1=0.001 R1=0 X0=0.001 R0=0

// Loads and motors
New "Load.load_611" Bus1="load_611.1.2.3.0" phases=3 Conn="wye" kV=4 kw=1.11111111 kvar=0.9 VminPU=0.95 Model=8 ZIPV= (0.2,0.05,0.75,0.2,0.05,0.75,0.8)
New "Load.load_634" Bus1="load_634.1.2.3.0" phases=3 Conn="wye" kV=4 kw=1.11111111 kvar=0.9 VminPU=0.95 Model=8 ZIPV= (0.2,0.05,0.75,0.2,0.05,0.75,0.8)
New "Load.load_645" Bus1="load_645.1.2.3.0" phases=3 Conn="wye" kV=4 kw=1.11111111 kvar=0.9 VminPU=0.95 Model=8 ZIPV= (0.2,0.05,0.75,0.2,0.05,0.75,0.8)
New "Load.load_646" Bus1="load_646.1.2.3.0" phases=3 Conn="wye" kV=4 kw=0.11111111 kvar=0.9 VminPU=0.95 Model=8 ZIPV= (0.2,0.05,0.75,0.2,0.05,0.75,0.8)
New "Load.load_652" Bus1="load_652.1.2.3.0" phases=3 Conn="wye" kV=4 kw=1.11111111 kvar=0.9 VminPU=0.95 Model=8 ZIPV= (0.2,0.05,0.75,0.2,0.05,0.75,0.8)
New "Load.load_671" Bus1="load_671.1.2.3.0" phases=3 Conn="wye" kV=4 kw=1.11111111 kvar=0.9 VminPU=0.95 Model=8 ZIPV= (0.2,0.05,0.75,0.2,0.05,0.75,0.8)
New "Load.load_675" Bus1="load_675.1.2.3.0" phases=3 Conn="wye" kV=4 kw=1.11111111 kvar=0.9 VminPU=0.95 Model=8 ZIPV= (0.2,0.05,0.75,0.2,0.05,0.75,0.8)
New "Load.load_692" Bus1="load_692.1.2.3.0" phases=3 Conn="wye" kV=4 kw=1.11111111 kvar=0.9 VminPU=0.95 Model=8 ZIPV= (0.2,0.05,0.75,0.2,0.05,0.75,0.8)

// Linecodes
New "Linecode.LC-custom_241f7b27-411d-45a9-af38-4ccb0f5994ba" nphases=3 R1=0.143 X1=0.224 R0=0.143 X0=0.224 Units="kft" Normamps=1000
New "Linecode.LC-custom_7d96552e-f8c6-4c20-95ab-4f4a47ac0cff" nphases=3 R1=0.252 X1=0.255 R0=0.252 X0=0.255 Units="kft" Normamps=1000
New "Linecode.LC-custom_e4926faa-4b2c-4d79-be5c-85c589586708" nphases=3 R1=0.066 X1=0.193 R0=0.066 X0=0.193 Units="kft" Normamps=1000
New "Linecode.LC-custom_eb31488d-56db-4f00-bef9-b1fce76bee09" nphases=3 R1=0.143 X1=0.224 R0=0.143 X0=0.224 Units="kft" Normamps=1000
New "Linecode.LC-custom_11e83de0-4ab5-4fdb-82f0-a344a24aa571" nphases=3 R1=0.252 X1=0.255 R0=0.252 X0=0.255 Units="kft" Normamps=1000
New "Linecode.LC-custom_02d6d331-92c2-4259-a858-c2f24a312e0c" nphases=3 R1=0.066 X1=0.193 R0=0.066 X0=0.193 Units="kft" Normamps=1000
New "Linecode.LC-custom_6094e1f5-1cd8-4d0c-b084-d7b2b72bb18a" nphases=3 R1=0.066 X1=0.193 R0=0.066 X0=0.193 Units="kft" Normamps=1000
New "Linecode.LC-custom_416a3b5e-fd38-40d8-a3c0-a51ac01c20e8" nphases=3 R1=0.251 X1=0.257 R0=0.251 X0=0.257 Units="kft" Normamps=1000
New "Linecode.LC-custom_934a7168-dab5-41a1-8133-3ec0c835f1ad" nphases=3 R1=0.143 X1=0.224 R0=0.143 X0=0.224 Units="kft" Normamps=1000
New "Linecode.LC-custom_eeb84cb6-dc1e-424d-87ef-7bf82c9c20ed" nphases=3 R1=0.252 X1=0.255 R0=0.252 X0=0.255 Units="kft" Normamps=1000
New "Linecode.LC-custom_f06d15f4-d3c1-4e57-b3ad-9685c210e0a7" nphases=3 R1=0.254 X1=0.097 R0=0.254 X0=0.097 Units="kft" Normamps=1000
New "Linecode.LC-custom_22c2fa0c-5261-4bc9-8dee-73fe5e49b8d1" nphases=3 R1=0.1511 X1=0.0845 R0=0.1511 X0=0.0845 Units="kft" Normamps=1000

// Lines, Automatic Transfer Switches (ATS) and Direct Connections
New "Line.conn 01" Bus1="bus_611.1.2.3" Bus2="load_611.1.2.3" phases=3 Switch=True
New "Line.conn 02" Bus1="bus_634.1.2.3" Bus2="load_634.1.2.3" phases=3 Switch=True
New "Line.conn 03" Bus1="bus_645.1.2.3" Bus2="load_645.1.2.3" phases=3 Switch=True
New "Line.conn 04" Bus1="bus_646.1.2.3" Bus2="load_646.1.2.3" phases=3 Switch=True
New "Line.conn 05" Bus1="bus_652.1.2.3" Bus2="load_652.1.2.3" phases=3 Switch=True
New "Line.conn 06" Bus1="bus_671.1.2.3" Bus2="load_671.1.2.3" phases=3 Switch=True
New "Line.conn 07" Bus1="bus_675.1.2.3" Bus2="load_675.1.2.3" phases=3 Switch=True
New "Line.conn 08" Bus1="bus_692.1.2.3" Bus2="load_692.1.2.3" phases=3 Switch=True
New "Line.L_632_633" Bus1="bus_632.1.2.3" Bus2="bus_633.1.2.3" LineCode="LC-custom_241f7b27-411d-45a9-af38-4ccb0f5994ba" Length=500 Units="ft"
New "Line.L_632_645" Bus1="bus_632.1.2.3" Bus2="bus_645.1.2.3" LineCode="LC-custom_7d96552e-f8c6-4c20-95ab-4f4a47ac0cff" Length=500 Units="ft"
New "Line.L_632_671" Bus1="bus_632.1.2.3" Bus2="bus_671.1.2.3" LineCode="LC-custom_e4926faa-4b2c-4d79-be5c-85c589586708" Length=2000 Units="ft"
New "Line.L_633_634" Bus1="bus_633.1.2.3" Bus2="bus_634.1.2.3" LineCode="LC-custom_eb31488d-56db-4f00-bef9-b1fce76bee09" Length=0.1 Units="ft"
New "Line.L_645_646" Bus1="bus_645.1.2.3" Bus2="bus_646.1.2.3" LineCode="LC-custom_11e83de0-4ab5-4fdb-82f0-a344a24aa571" Length=300 Units="ft"
New "Line.L_650_632" Bus1="bus_650.1.2.3" Bus2="bus_632.1.2.3" LineCode="LC-custom_02d6d331-92c2-4259-a858-c2f24a312e0c" Length=2000 Units="ft"
New "Line.L_671_680" Bus1="bus_671.1.2.3" Bus2="bus_680.1.2.3" LineCode="LC-custom_6094e1f5-1cd8-4d0c-b084-d7b2b72bb18a" Length=1000 Units="ft"
New "Line.L_671_684" Bus1="bus_671.1.2.3" Bus2="bus_684.1.2.3" LineCode="LC-custom_416a3b5e-fd38-40d8-a3c0-a51ac01c20e8" Length=300 Units="ft"
New "Line.L_671_692" Bus1="bus_671.1.2.3" Bus2="bus_692.1.2.3" LineCode="LC-custom_934a7168-dab5-41a1-8133-3ec0c835f1ad" Length=0.1 Units="ft"
New "Line.L_684_611" Bus1="bus_684.1.2.3" Bus2="bus_611.1.2.3" LineCode="LC-custom_eeb84cb6-dc1e-424d-87ef-7bf82c9c20ed" Length=300 Units="ft"
New "Line.L_684_652" Bus1="bus_684.1.2.3" Bus2="bus_652.1.2.3" LineCode="LC-custom_f06d15f4-d3c1-4e57-b3ad-9685c210e0a7" Length=800 Units="ft"
New "Line.L_692_675" Bus1="bus_692.1.2.3" Bus2="bus_675.1.2.3" LineCode="LC-custom_22c2fa0c-5261-4bc9-8dee-73fe5e49b8d1" Length=500 Units="ft"
New "Line.L_U_650" Bus1="sourcebus.1.2.3" Bus2="bus_650.1.2.3" phases=3 Switch=True
//batchedit load..* Vmin=0.75
//batchedit load..* Model=8
//batchedit load..* ZIPV= (0.2,0.05,0.75,0.2,0.05,0.75,0.8)


// Voltage bases
Set VoltageBases=[4.16]
CalcVoltageBases

// Solve study
Solve BaseFrequency=60 MaxIter=300 MaxControlIter=10000

// Set bus (x,y) coordinates
SetBusXY Bus="bus_632" X=1270 Y=-695.5
SetBusXY Bus="load_646" X=453 Y=-1724.5
SetBusXY Bus="load_652" X=2439 Y=-2089.5
SetBusXY Bus="load_611" X=2087 Y=-2089.5
SetBusXY Bus="bus_675" X=1383 Y=-1724.5
SetBusXY Bus="bus_646" X=453 Y=-1359.5
SetBusXY Bus="load_634" X=101 Y=-1724.5
SetBusXY Bus="bus_611" X=2087 Y=-1724.5
SetBusXY Bus="bus_650" X=101 Y=-374.5
SetBusXY Bus="load_645" X=729 Y=-1359.5
SetBusXY Bus="bus_645" X=591 Y=-1016.5
SetBusXY Bus="bus_671" X=2049 Y=-1016.5
SetBusXY Bus="bus_692" X=1219.5 Y=-1359.5
SetBusXY Bus="sourcebus" X=101 Y=-31.5
SetBusXY Bus="bus_684" X=2263 Y=-1359.5
SetBusXY Bus="bus_652" X=2439 Y=-1724.5
SetBusXY Bus="load_671" X=2715 Y=-1359.5
SetBusXY Bus="bus_680" X=1735 Y=-1359.5
SetBusXY Bus="load_692" X=1056 Y=-1724.5
SetBusXY Bus="load_675" X=1383 Y=-2089.5
SetBusXY Bus="bus_633" X=101 Y=-1016.5
SetBusXY Bus="bus_634" X=101 Y=-1359.5



